LAMMPS (2 Aug 2023 - Update 3)

##
units       metal
dimension   3
boundary    p p p
atom_style  atomic
box         tilt large

The 'box' command has been removed and will be ignored

read_data   data.in
Reading data file ...
  triclinic box = (0 0 0) to (43.418484 55.441863 54.592876) with tilt (1.3561539 0.065021645 3.5799404)
  reading atoms ...
  5184 atoms

neigh_modify    every 1 delay 0 check no

pair_style      mlip mlip.ini
pair_coeff      * *

##################################################################################

#variable        T               equal 900
#variable        eql_step        equal 10000000
#variable        rd_seed         equal 666666
variable        P           equal 1.0    # 目标压力 (atm)

variable        temp_damp   equal 0.3  # tau_NVT = timestep * 100  温度松弛时间
variable        press_damp  equal 3.0 # press_damp = timestep * 1000  压力松弛时间

variable        t_step      equal 0.003
variable        rlx_step    equal 0

variable        thermo_freq equal 20000
variable        dump_freq   equal 35000

group Na type 1
1728 atoms in group Na
group S type 2
2304 atoms in group S
group Zn type 4
864 atoms in group Zn
group Zr type 5
288 atoms in group Zr

thermo_style    custom step pe ke etotal press lx ly lz vol density
thermo          5000

min_style cg
minimize 1.0e-8 1.0e-10 5000 100000
Step         PotEng         KinEng         TotEng         Press            Lx             Ly             Lz           Volume        Density
0  -7728147.4      0             -7728147.4      1317.9575      43.418484      55.441863      54.592876      131416.06      2.48107
Loop time of 0.666929 on 56 procs for 100 steps with 5184 atoms

Minimization stats:
  Stopping criterion = energy tolerance
  Energy initial, next-to-last, final =
  Force two-norm initial, final = 10.505337 1.0259659
  Force max component initial, final = 0.3077835 0.04673025
  Final line search alpha, max atom move = 1 0.04673025
  Iterations, force evaluations = 100 193

write_data relaxed_structure.data
System init for write_data ...
reset_timestep  0

velocity        all create 300 1454 dist gaussian

fix             1 all npt temp 300 300 0.3 tri 1 1 3
timestep        0.003
run             0
Step         PotEng         KinEng         TotEng         Press            Lx             Ly             Lz           Volume        Density
0  -7728202.7      200.9866      -7728001.8     -1964.7808      43.418484      55.441863      54.592876      131416.06      2.48107
Loop time of 3.73282e-06 on 56 procs for 0 steps with 5184 atoms

unfix           1
write_restart   npt.restart
System init for write_restart ...

reset_timestep  0

##################################################################################

## nvt-equal
fix             equil all nvt temp 300 300 0.3
timestep        0.003

# rdf calculation (optional)
#compute         rdf all rdf 100 6 2 2 2 2 3 2 4
#fix             rdf_fix all ave/time 100 1 100 c_rdf[*] file target.rdf mode vector

# msd calculation
compute msd1 Na msd com yes

# Combined MSD for all selected elements
# 使用title命令设置列标题
fix             all_msd all ave/time 100 1 100 c_msd1[4]  file msd_tracer_300_3.data

# Charge Diffusion Coefficient for Na
#variable    N_Na     equal   count(Na)           # Na原子数量
#compute     disp_Na  Na  displace/atom          # 计算Na原子的位移
#compute     sum_d_Na Na  reduce sum c_disp_Na[1] c_disp_Na[2] c_disp_Na[3]
#variable    msd_Na   equal   "(c_sum_d_Na[1]^2 + c_sum_d_Na[2]^2 + c_sum_d_Na[3]^2)/v_N_Na"

## thermo_style
thermo_style    custom step etotal temp vol pxx pyy pzz lx ly lz  c_msd1[4]
thermo          20000
thermo_modify   flush yes
dump            3 all custom 35000 mtp_300_nvt_3.traj id type element x y z
dump_modify     3 element Na S Ti Zn Zr Hf
run             350000
Step         TotEng          Temp          Volume          Pxx            Pyy            Pzz             Lx             Ly             Lz         c_msd1[4]
0  -7728001.8      300            131416.06      1006.3559     -3839.729      -3060.9692      43.418484      55.441863      54.592876      2.0493949e-29
Averages over the last 10 of 19 rows, steps 180000 to 350000:
TotEng Temp Volume Pxx Pyy Pzz Lx Ly Lz c_msd1[4]
-7.72789e+06 299.541 131416 -2038.65 -3477.71 -4374 43.4185 55.4419 54.5929 7.17875
Loop time of 1220.27 on 56 procs for 350000 steps with 5184 atoms

write_restart   msd.restart
System init for write_restart ...
